Circuit: * C:\Users\riotoro\Documents\qrplabs\pa linear 10w\LTSpice\qlab 10w complete.asc

Instance "m:m2:2": Length shorter than recommended for a level 1 MOSFET.
Instance "m:m1:2": Length shorter than recommended for a level 1 MOSFET.
Direct Newton iteration for .op point succeeded.

Date: Sat Oct 16 17:34:56 2021
Total elapsed time: 0.952 seconds.

tnom = 27
temp = 27
method = modified trap
totiter = 103679
traniter = 103669
tranpoints = 26662
accept = 17575
rejected = 9087
matrix size = 53
fillins = 48
solver = Normal
Matrix Compiler1: 8.40 KB object code size  1.4/1.2/[0.6]
Matrix Compiler2: off  [0.5]/1.3/0.8

